%  word behind % is comment
#AnalysisType
section
#EndAnalysisType

#Jobname
sectionAnalysis
#EndJobnname

#Material
OpsConcreteCM 1  -50  -0.002  30000  1.2 1.5 0.56  5  0.0002  1.3 2 0.67 0 0
OpsSteel02 2 345 172500 0.01
#EndMaterial

#Section
%No.section No.column  Para1  Para2
1            1
#EndSection

#Fiber 
%No.Fiber	LocX	LocY	Area	No.Material   No.section
1    2.3097    0.9567    9.8175    1  1
2    0.9567    2.3097    9.8175    1  1
3   -0.9567    2.3097    9.8175    1  1
4   -2.3097    0.9567    9.8175    1  1
5   -2.3097   -0.9567    9.8175    1  1
6   -0.9567   -2.3097    9.8175    1  1
7    0.9567   -2.3097    9.8175    1  1
8    2.3097   -0.9567    9.8175    1  1
9    6.9291    2.8701   29.4524    1  1
10    2.8701    6.9291   29.4524    1  1
11   -2.8701    6.9291   29.4524    1  1
12   -6.9291    2.8701   29.4524    1  1
13   -6.9291   -2.8701   29.4524    1  1
14   -2.8701   -6.9291   29.4524    1  1
15    2.8701   -6.9291   29.4524    1  1
16    6.9291   -2.8701   29.4524    1  1
17   11.5485    4.7835   49.0874    1  1
18    4.7835   11.5485   49.0874    1  1
19   -4.7835   11.5485   49.0874    1  1
20  -11.5485    4.7835   49.0874    1  1
21  -11.5485   -4.7835   49.0874    1  1
22   -4.7835  -11.5485   49.0874    1  1
23    4.7835  -11.5485   49.0874    1  1
24   11.5485   -4.7835   49.0874    1  1
25   16.1679    6.6970   68.7223    1  1
26    6.6970   16.1679   68.7223    1  1
27   -6.6970   16.1679   68.7223    1  1
28  -16.1679    6.6970   68.7223    1  1
29  -16.1679   -6.6970   68.7223    1  1
30   -6.6970  -16.1679   68.7223    1  1
31    6.6970  -16.1679   68.7223    1  1
32   16.1679   -6.6970   68.7223    1  1
33   20.7873    8.6104   88.3573    1  1
34    8.6104   20.7873   88.3573    1  1
35   -8.6104   20.7873   88.3573    1  1
36  -20.7873    8.6104   88.3573    1  1
37  -20.7873   -8.6104   88.3573    1  1
38   -8.6104  -20.7873   88.3573    1  1
39    8.6104  -20.7873   88.3573    1  1
40   20.7873   -8.6104   88.3573    1  1
41   25.4067   10.5238  107.9922    1  1
42   10.5238   25.4067  107.9922    1  1
43  -10.5238   25.4067  107.9922    1  1
44  -25.4067   10.5238  107.9922    1  1
45  -25.4067  -10.5238  107.9922    1  1
46  -10.5238  -25.4067  107.9922    1  1
47   10.5238  -25.4067  107.9922    1  1
48   25.4067  -10.5238  107.9922    1  1
49   30.0261   12.4372  127.6272    1  1
50   12.4372   30.0261  127.6272    1  1
51  -12.4372   30.0261  127.6272    1  1
52  -30.0261   12.4372  127.6272    1  1
53  -30.0261  -12.4372  127.6272    1  1
54  -12.4372  -30.0261  127.6272    1  1
55   12.4372  -30.0261  127.6272    1  1
56   30.0261  -12.4372  127.6272    1  1
57   34.6455   14.3506  147.2622    1  1
58   14.3506   34.6455  147.2622    1  1
59  -14.3506   34.6455  147.2622    1  1
60  -34.6455   14.3506  147.2622    1  1
61  -34.6455  -14.3506  147.2622    1  1
62  -14.3506  -34.6455  147.2622    1  1
63   14.3506  -34.6455  147.2622    1  1
64   34.6455  -14.3506  147.2622    1  1
65   39.2649   16.2640  166.8971    1  1
66   16.2640   39.2649  166.8971    1  1
67  -16.2640   39.2649  166.8971    1  1
68  -39.2649   16.2640  166.8971    1  1
69  -39.2649  -16.2640  166.8971    1  1
70  -16.2640  -39.2649  166.8971    1  1
71   16.2640  -39.2649  166.8971    1  1
72   39.2649  -16.2640  166.8971    1  1
73   43.8843   18.1775  186.5321    1  1
74   18.1775   43.8843  186.5321    1  1
75  -18.1775   43.8843  186.5321    1  1
76  -43.8843   18.1775  186.5321    1  1
77  -43.8843  -18.1775  186.5321    1  1
78  -18.1775  -43.8843  186.5321    1  1
79   18.1775  -43.8843  186.5321    1  1
80   43.8843  -18.1775  186.5321    1  1
81   46.6559   19.3255   39.6626    2  1
82   19.3255   46.6559   39.6626    2  1
83  -19.3255   46.6559   39.6626    2  1
84  -46.6559   19.3255   39.6626    2  1
85  -46.6559  -19.3255   39.6626    2  1
86  -19.3255  -46.6559   39.6626    2  1
87   19.3255  -46.6559   39.6626    2  1
88   46.6559  -19.3255   39.6626    2  1
89   47.5798   19.7082   40.4480    2  1
90   19.7082   47.5798   40.4480    2  1
91  -19.7082   47.5798   40.4480    2  1
92  -47.5798   19.7082   40.4480    2  1
93  -47.5798  -19.7082   40.4480    2  1
94  -19.7082  -47.5798   40.4480    2  1
95   19.7082  -47.5798   40.4480    2  1
96   47.5798  -19.7082   40.4480    2  1
97   48.5037   20.0909   41.2334    2  1
98   20.0909   48.5037   41.2334    2  1
99  -20.0909   48.5037   41.2334    2  1
100  -48.5037   20.0909   41.2334    2  1
101  -48.5037  -20.0909   41.2334    2  1
102  -20.0909  -48.5037   41.2334    2  1
103   20.0909  -48.5037   41.2334    2  1
104   48.5037  -20.0909   41.2334    2  1
105   49.4276   20.4736   42.0188    2  1
106   20.4736   49.4276   42.0188    2  1
107  -20.4736   49.4276   42.0188    2  1
108  -49.4276   20.4736   42.0188    2  1
109  -49.4276  -20.4736   42.0188    2  1
110  -20.4736  -49.4276   42.0188    2  1
111   20.4736  -49.4276   42.0188    2  1
112   49.4276  -20.4736   42.0188    2  1
#EndFiber

#Load
%loadValues(for section): 
%%nromal: strain curvatureX curvatrueY force momentX momentY 
%loadID calObjType loadType step {loadValues} {loadProps}
1 section normal 1000 {UNSET 0.000003 0 0 UNSET UNSET} {}

#EndLoad

#Record
%recordID recordType targetCalObjID targetVariable
1 section 1 strain
2 section 1 curvatureX
3 section 1 curvatureY
4 section 1 force
5 section 1 momentX
6 section 1 momentY
#EndRecord
